/*--------------------------------*- C++ -*----------------------------------*\
  =========                 |
  \\      /  F ield         | OpenFOAM: The Open Source CFD Toolbox
   \\    /   O peration     | Website:  https://openfoam.org
    \\  /    A nd           | Version:  9
     \\/     M anipulation  |
\*---------------------------------------------------------------------------*/
FoamFile
{
    format      ascii;
    class       volScalarField;
    location    "0";
    object      k;
}
// * * * * * * * * * * * * * * * * * * * * * * * * * * * * * * * * * * * * * //

dimensions      [0 2 -2 0 0 0 0];

internalField   uniform 0.000175772;

boundaryField
{
    sides
    {
        type            empty;
    }
    inlet
    {
        type            fixedValue;
        value           uniform 0.000175772;
    }
    outlet
    {
        type            zeroGradient;
    }
    airfoil
    {
        type            fixedValue;
        value           uniform 0;
    }
    procBoundary3to0
    {
        type            processor;
        value           uniform 0.000175772;
    }
    procBoundary3to2
    {
        type            processor;
        value           uniform 0.000175772;
    }
}


// ************************************************************************* //
