/*--------------------------------*- C++ -*----------------------------------*\
  =========                 |
  \\      /  F ield         | OpenFOAM: The Open Source CFD Toolbox
   \\    /   O peration     | Website:  https://openfoam.org
    \\  /    A nd           | Version:  9
     \\/     M anipulation  |
\*---------------------------------------------------------------------------*/
FoamFile
{
    format      ascii;
    class       dictionary;
    location    "system";
    object      fvSchemes;
}
// * * * * * * * * * * * * * * * * * * * * * * * * * * * * * * * * * * * * * //

ddtSchemes
{
    default         CrankNicolson 0.3;
}

gradSchemes
{
    default         cellLimited Gauss linear 0.5;
    grad(U)         cellLimited Gauss linear 1;
}

divSchemes
{
    default             none;

    div(phi,U)          Gauss linearUpwind grad(U);
    
    turbulence          Gauss linearUpwind default;
    div(phi,k)          $turbulence;
    div(phi,omega)      $turbulence;
    div(phi,gammaInt)   $turbulence;
    div(phi,ReThetat)   $turbulence;

    div((nuEff*dev2(T(grad(U))))) Gauss linear;
}

laplacianSchemes
{
    default         Gauss linear corrected;
}

interpolationSchemes
{
    default         linear;
}

snGradSchemes
{
    default         corrected;
}

fluxRequired
{
    default         no;
    p;
}

wallDist
{
    method meshWave;
}


// ************************************************************************* //
