/*--------------------------------*- C++ -*----------------------------------*\
  =========                 |
  \\      /  F ield         | OpenFOAM: The Open Source CFD Toolbox
   \\    /   O peration     | Website:  https://openfoam.org
    \\  /    A nd           | Version:  9
     \\/     M anipulation  |
\*---------------------------------------------------------------------------*/
FoamFile
{
    format      ascii;
    class       dictionary;
    location    "system";
    object      controlDict;
}
// * * * * * * * * * * * * * * * * * * * * * * * * * * * * * * * * * * * * * //

time 			4000;
dt              5;        

application     simpleFoam;

startFrom       startTime;

startTime       0;

stopAt          endTime;

endTime         $time;

deltaT          1;

writeControl    timeStep;

writeInterval   $time;

purgeWrite      0;

writeFormat     ascii;

writePrecision  6;

writeCompression off;

timeFormat      general;

timePrecision   6;

runTimeModifiable true;

functions
{

	residuals
    {
        type            residuals;
        functionObjectLibs ("libutilityFunctionObjects.so");
        enabled         true;
        writeControl   timeStep;
        writeInterval  1;

        fields
        (
            p
            U
            k
            omega
			ReThetat
			gammaInt
        );
    }



    forceCoeffs
    {
        type                forceCoeffs; 
        libs                ("libforces.so");
        patches             (airfoil);

        pName               p; 
        UName	            U;
        rho                 rhoInf;
        rhoInf              1;
        pRef                0;

        writeControl        timeStep; 
        writeInterval       $dt;

        CofR                (0 0 0);
        dragDir             (1 0 0);
        liftDir             (0 1 0);
        pitchAxis   	    (0 0 1); 

        magUInf 			2;
        lRef                1; 
        Aref                1;
        binData
        {
            nBin        20;
            direction   (1 0 0);
            cumulative  yes;
        }
    }

    writeCellVolumes1
    {
        type        writeCellVolumes; 
        libs        ("libfieldFunctionObjects.so");

        writeControl timeStep;
        writeInterval $time;
    }

}

// ************************************************************************* //
