/*--------------------------------*- C++ -*----------------------------------*\
  =========                 |
  \\      /  F ield         | OpenFOAM: The Open Source CFD Toolbox
   \\    /   O peration     | Website:  https://openfoam.org
    \\  /    A nd           | Version:  10
     \\/     M anipulation  |
\*---------------------------------------------------------------------------*/
FoamFile
{
    format      ascii;
    class       volScalarField;
    location    "0";
    object      p;
}
// * * * * * * * * * * * * * * * * * * * * * * * * * * * * * * * * * * * * * //

dimensions      [0 2 -2 0 0 0 0];

internalField   uniform 0.0; 

boundaryField
{
    Inlet
    {
        type zeroGradient;
    }

    Outlet
    {
        type    fixedValue;
        value   $internalField;
    }

    Sides
    {
        type    empty;
    }

    Object
    {
        type    zeroGradient;
    }

    Walls
    {
        type    zeroGradient;
    }
}



// ************************************************************************* //
