/*--------------------------------*- C++ -*----------------------------------*\
  =========                 |
  \\      /  F ield         | OpenFOAM: The Open Source CFD Toolbox
   \\    /   O peration     | Website:  https://openfoam.org
    \\  /    A nd           | Version:  10
     \\/     M anipulation  |
\*---------------------------------------------------------------------------*/
FoamFile
{
    format      ascii;
    class       volVectorField;
    location    "0";
    object      U;
}
// * * * * * * * * * * * * * * * * * * * * * * * * * * * * * * * * * * * * * //

dimensions      [0 1 -1 0 0 0 0];

internalField   uniform (11.5 0 0);

boundaryField
{
    Inlet //inlet
    {
        type      fixedValue;
        value     $internalField;
    }

    Outlet //outlet
    {
        type zeroGradient;
    }
    Sides
    {
        type    empty;
    }

    "(Walls|Object)" 
    {
        type    noSlip;
    }
}

// ************************************************************************* //
