// -*- C++ -*-
// File generated by PyFoam - sorry for the ugliness

FoamFile
{
 format ascii;
 class dictionary;
 location "constant";
 object transportProperties;
}

transportModel Newtonian;

nu     [ 0 2 -1 0 0 0 0 ]     1.1516e-05 ;

