/*--------------------------------*- C++ -*----------------------------------*\
  =========                 |
  \\      /  F ield         | OpenFOAM: The Open Source CFD Toolbox
   \\    /   O peration     | Website:  https://openfoam.org
    \\  /    A nd           | Version:  9
     \\/     M anipulation  |
\*---------------------------------------------------------------------------*/
FoamFile
{
    format      ascii;
    class       dictionary;
    object      fvSolution;
}
// * * * * * * * * * * * * * * * * * * * * * * * * * * * * * * * * * * * * * //

solvers
{
    p
    {
        solver          GAMG;
        smoother        GaussSeidel;
        tolerance       1e-5;
        relTol          0.1;
    }
    pFinal
    {
        $p;
        reltol  0;
    }

    Phi
    {
        $p;
    }

    "(U|k|omega|gammaInt|ReThetat)"
    {
        solver          smoothSolver;
        smoother        symGaussSeidel;
        tolerance       1e-7;
        relTol          0.1;
        maxIter         10;
    }

    "(U|k|omega|gammaInt|ReThetat)Final"
    {
        $U;
        solver          smoothSolver;
        smoother        symGaussSeidel;
        tolerance       1e-7;
        relTol          0.1;
        maxIter         10;
    }
}

PIMPLE
{
    nNonOrthogonalCorrectors 3;
    consistent      yes;

    residualControl
    {
        p               1e-5;
        U               1e-6;
        "(k|omega|gammaInt|ReThetat)" 1e-4;
    }
}

relaxationFactors
{
    fields 
    {
        p               0.3; 
    }
    equations
    {
        U               0.7;
        k               0.01;            //low value 0.05
        omega           0.01;            //low value 0.05
        ReThetat        0.7; 
        gammaInt        0.7;
    }
}

cache
{
    grad(U);
}

// ************************************************************************* //
