/*--------------------------------*- C++ -*----------------------------------*\
  =========                 |
  \\      /  F ield         | OpenFOAM: The Open Source CFD Toolbox
   \\    /   O peration     | Website:  https://openfoam.org
    \\  /    A nd           | Version:  9
     \\/     M anipulation  |
\*---------------------------------------------------------------------------*/
FoamFile
{
    format      ascii;
    class       polyBoundaryMesh;
    location    "constant/polyMesh";
    object      boundary;
}
// * * * * * * * * * * * * * * * * * * * * * * * * * * * * * * * * * * * * * //

6
(
    sides
    {
        type            empty;
        physicalType    empty;
        inGroups        List<word> 1(empty);
        nFaces          26708;
        startFace       26464;
    }
    inlet
    {
        type            patch;
        physicalType    patch;
        nFaces          119;
        startFace       53172;
    }
    outlet
    {
        type            patch;
        physicalType    patch;
        nFaces          124;
        startFace       53291;
    }
    airfoil
    {
        type            wall;
        physicalType    wall;
        inGroups        List<word> 1(wall);
        nFaces          9;
        startFace       53415;
    }
    procBoundary2to1
    {
        type            processor;
        inGroups        List<word> 1(processor);
        nFaces          112;
        startFace       53424;
        matchTolerance  0.0001;
        myProcNo        2;
        neighbProcNo    1;
    }
    procBoundary2to3
    {
        type            processor;
        inGroups        List<word> 1(processor);
        nFaces          124;
        startFace       53536;
        matchTolerance  0.0001;
        myProcNo        2;
        neighbProcNo    3;
    }
)

// ************************************************************************* //
