/*--------------------------------*- C++ -*----------------------------------*\
  =========                 |
  \\      /  F ield         | OpenFOAM: The Open Source CFD Toolbox
   \\    /   O peration     | Website:  https://openfoam.org
    \\  /    A nd           | Version:  9
     \\/     M anipulation  |
\*---------------------------------------------------------------------------*/
FoamFile
{
    format      ascii;
    class       polyBoundaryMesh;
    location    "constant/polyMesh";
    object      boundary;
}
// * * * * * * * * * * * * * * * * * * * * * * * * * * * * * * * * * * * * * //

6
(
    sides
    {
        type            empty;
        physicalType    empty;
        inGroups        List<word> 1(empty);
        nFaces          27076;
        startFace       26826;
    }
    inlet
    {
        type            patch;
        physicalType    patch;
        nFaces          125;
        startFace       53902;
    }
    outlet
    {
        type            patch;
        physicalType    patch;
        nFaces          0;
        startFace       54027;
    }
    airfoil
    {
        type            wall;
        physicalType    wall;
        inGroups        List<word> 1(wall);
        nFaces          142;
        startFace       54027;
    }
    procBoundary1to0
    {
        type            processor;
        inGroups        List<word> 1(processor);
        nFaces          121;
        startFace       54169;
        matchTolerance  0.0001;
        myProcNo        1;
        neighbProcNo    0;
    }
    procBoundary1to2
    {
        type            processor;
        inGroups        List<word> 1(processor);
        nFaces          112;
        startFace       54290;
        matchTolerance  0.0001;
        myProcNo        1;
        neighbProcNo    2;
    }
)

// ************************************************************************* //
