/*--------------------------------*- C++ -*----------------------------------*\
  =========                 |
  \\      /  F ield         | OpenFOAM: The Open Source CFD Toolbox
   \\    /   O peration     | Website:  https://openfoam.org
    \\  /    A nd           | Version:  9
     \\/     M anipulation  |
\*---------------------------------------------------------------------------*/
FoamFile
{
    format      ascii;
    class       polyBoundaryMesh;
    location    "constant/polyMesh";
    object      boundary;
}
// * * * * * * * * * * * * * * * * * * * * * * * * * * * * * * * * * * * * * //

6
(
    sides
    {
        type            empty;
        physicalType    empty;
        inGroups        List<word> 1(empty);
        nFaces          27234;
        startFace       26965;
    }
    inlet
    {
        type            patch;
        physicalType    patch;
        nFaces          155;
        startFace       54199;
    }
    outlet
    {
        type            patch;
        physicalType    patch;
        nFaces          74;
        startFace       54354;
    }
    airfoil
    {
        type            wall;
        physicalType    wall;
        inGroups        List<word> 1(wall);
        nFaces          58;
        startFace       54428;
    }
    procBoundary3to0
    {
        type            processor;
        inGroups        List<word> 1(processor);
        nFaces          127;
        startFace       54486;
        matchTolerance  0.0001;
        myProcNo        3;
        neighbProcNo    0;
    }
    procBoundary3to2
    {
        type            processor;
        inGroups        List<word> 1(processor);
        nFaces          124;
        startFace       54613;
        matchTolerance  0.0001;
        myProcNo        3;
        neighbProcNo    2;
    }
)

// ************************************************************************* //
