/*--------------------------------*- C++ -*----------------------------------*\
  =========                 |
  \\      /  F ield         | OpenFOAM: The Open Source CFD Toolbox
   \\    /   O peration     | Website:  https://openfoam.org
    \\  /    A nd           | Version:  9
     \\/     M anipulation  |
\*---------------------------------------------------------------------------*/
FoamFile
{
    format      ascii;
    class       polyBoundaryMesh;
    location    "constant/polyMesh";
    object      boundary;
}
// * * * * * * * * * * * * * * * * * * * * * * * * * * * * * * * * * * * * * //

6
(
    sides
    {
        type            empty;
        physicalType    empty;
        inGroups        List<word> 1(empty);
        nFaces          26892;
        startFace       26626;
    }
    inlet
    {
        type            patch;
        physicalType    patch;
        nFaces          146;
        startFace       53518;
    }
    outlet
    {
        type            patch;
        physicalType    patch;
        nFaces          0;
        startFace       53664;
    }
    airfoil
    {
        type            wall;
        physicalType    wall;
        inGroups        List<word> 1(wall);
        nFaces          138;
        startFace       53664;
    }
    procBoundary0to1
    {
        type            processor;
        inGroups        List<word> 1(processor);
        nFaces          121;
        startFace       53802;
        matchTolerance  0.0001;
        myProcNo        0;
        neighbProcNo    1;
    }
    procBoundary0to3
    {
        type            processor;
        inGroups        List<word> 1(processor);
        nFaces          127;
        startFace       53923;
        matchTolerance  0.0001;
        myProcNo        0;
        neighbProcNo    3;
    }
)

// ************************************************************************* //
